* NGSPICE file created from divider.ext - technology: gf180mcuC

* Black-box entry subcircuit for gf180mcu_fd_sc_mcu7t5v0__fill_1 abstract view
.subckt gf180mcu_fd_sc_mcu7t5v0__fill_1 VDD VSS
.ends

* Black-box entry subcircuit for gf180mcu_fd_sc_mcu7t5v0__fill_2 abstract view
.subckt gf180mcu_fd_sc_mcu7t5v0__fill_2 VDD VSS
.ends

* Black-box entry subcircuit for gf180mcu_fd_sc_mcu7t5v0__filltie abstract view
.subckt gf180mcu_fd_sc_mcu7t5v0__filltie VDD VSS
.ends

* Black-box entry subcircuit for gf180mcu_fd_sc_mcu7t5v0__fillcap_4 abstract view
.subckt gf180mcu_fd_sc_mcu7t5v0__fillcap_4 VDD VSS
.ends

* Black-box entry subcircuit for gf180mcu_fd_sc_mcu7t5v0__fillcap_32 abstract view
.subckt gf180mcu_fd_sc_mcu7t5v0__fillcap_32 VDD VSS
.ends

* Black-box entry subcircuit for gf180mcu_fd_sc_mcu7t5v0__antenna abstract view
.subckt gf180mcu_fd_sc_mcu7t5v0__antenna I VDD VSS
.ends

* Black-box entry subcircuit for gf180mcu_fd_sc_mcu7t5v0__fillcap_16 abstract view
.subckt gf180mcu_fd_sc_mcu7t5v0__fillcap_16 VDD VSS
.ends

* Black-box entry subcircuit for gf180mcu_fd_sc_mcu7t5v0__tiel abstract view
.subckt gf180mcu_fd_sc_mcu7t5v0__tiel ZN VDD VSS
.ends

* Black-box entry subcircuit for gf180mcu_fd_sc_mcu7t5v0__dffq_1 abstract view
.subckt gf180mcu_fd_sc_mcu7t5v0__dffq_1 D CLK Q VDD VSS
.ends

* Black-box entry subcircuit for gf180mcu_fd_sc_mcu7t5v0__fillcap_8 abstract view
.subckt gf180mcu_fd_sc_mcu7t5v0__fillcap_8 VDD VSS
.ends

* Black-box entry subcircuit for gf180mcu_fd_sc_mcu7t5v0__nor3_1 abstract view
.subckt gf180mcu_fd_sc_mcu7t5v0__nor3_1 A1 A2 A3 ZN VDD VSS
.ends

* Black-box entry subcircuit for gf180mcu_fd_sc_mcu7t5v0__xor2_1 abstract view
.subckt gf180mcu_fd_sc_mcu7t5v0__xor2_1 A1 A2 Z VDD VSS
.ends

* Black-box entry subcircuit for gf180mcu_fd_sc_mcu7t5v0__and4_1 abstract view
.subckt gf180mcu_fd_sc_mcu7t5v0__and4_1 A1 A2 A3 A4 Z VDD VSS
.ends

* Black-box entry subcircuit for gf180mcu_fd_sc_mcu7t5v0__clkbuf_3 abstract view
.subckt gf180mcu_fd_sc_mcu7t5v0__clkbuf_3 I Z VDD VSS
.ends

* Black-box entry subcircuit for gf180mcu_fd_sc_mcu7t5v0__fillcap_64 abstract view
.subckt gf180mcu_fd_sc_mcu7t5v0__fillcap_64 VDD VSS
.ends

* Black-box entry subcircuit for gf180mcu_fd_sc_mcu7t5v0__nor2_1 abstract view
.subckt gf180mcu_fd_sc_mcu7t5v0__nor2_1 A1 A2 ZN VDD VSS
.ends

* Black-box entry subcircuit for gf180mcu_fd_sc_mcu7t5v0__aoi21_1 abstract view
.subckt gf180mcu_fd_sc_mcu7t5v0__aoi21_1 A1 A2 B ZN VDD VSS
.ends

* Black-box entry subcircuit for gf180mcu_fd_sc_mcu7t5v0__nand3_1 abstract view
.subckt gf180mcu_fd_sc_mcu7t5v0__nand3_1 A1 A2 A3 ZN VDD VSS
.ends

* Black-box entry subcircuit for gf180mcu_fd_sc_mcu7t5v0__clkbuf_16 abstract view
.subckt gf180mcu_fd_sc_mcu7t5v0__clkbuf_16 I Z VDD VSS
.ends

* Black-box entry subcircuit for gf180mcu_fd_sc_mcu7t5v0__xnor2_1 abstract view
.subckt gf180mcu_fd_sc_mcu7t5v0__xnor2_1 A1 A2 ZN VDD VSS
.ends

* Black-box entry subcircuit for gf180mcu_fd_sc_mcu7t5v0__nand4_2 abstract view
.subckt gf180mcu_fd_sc_mcu7t5v0__nand4_2 A1 A2 A3 A4 ZN VDD VSS
.ends

* Black-box entry subcircuit for gf180mcu_fd_sc_mcu7t5v0__clkbuf_1 abstract view
.subckt gf180mcu_fd_sc_mcu7t5v0__clkbuf_1 I Z VDD VSS
.ends

* Black-box entry subcircuit for gf180mcu_fd_sc_mcu7t5v0__and2_1 abstract view
.subckt gf180mcu_fd_sc_mcu7t5v0__and2_1 A1 A2 Z VDD VSS
.ends

* Black-box entry subcircuit for gf180mcu_fd_sc_mcu7t5v0__and3_1 abstract view
.subckt gf180mcu_fd_sc_mcu7t5v0__and3_1 A1 A2 A3 Z VDD VSS
.ends

* Black-box entry subcircuit for gf180mcu_fd_sc_mcu7t5v0__nor4_1 abstract view
.subckt gf180mcu_fd_sc_mcu7t5v0__nor4_1 A1 A2 A3 A4 ZN VDD VSS
.ends

* Black-box entry subcircuit for gf180mcu_fd_sc_mcu7t5v0__nand2_1 abstract view
.subckt gf180mcu_fd_sc_mcu7t5v0__nand2_1 A1 A2 ZN VDD VSS
.ends

* Black-box entry subcircuit for gf180mcu_fd_sc_mcu7t5v0__endcap abstract view
.subckt gf180mcu_fd_sc_mcu7t5v0__endcap VDD VSS
.ends

* Black-box entry subcircuit for gf180mcu_fd_sc_mcu7t5v0__aoi221_1 abstract view
.subckt gf180mcu_fd_sc_mcu7t5v0__aoi221_1 A1 A2 B1 B2 C ZN VDD VSS
.ends

* Black-box entry subcircuit for gf180mcu_fd_sc_mcu7t5v0__oai211_2 abstract view
.subckt gf180mcu_fd_sc_mcu7t5v0__oai211_2 A1 A2 B C ZN VDD VSS
.ends

* Black-box entry subcircuit for gf180mcu_fd_sc_mcu7t5v0__nand4_1 abstract view
.subckt gf180mcu_fd_sc_mcu7t5v0__nand4_1 A1 A2 A3 A4 ZN VDD VSS
.ends

* Black-box entry subcircuit for gf180mcu_fd_sc_mcu7t5v0__aoi211_1 abstract view
.subckt gf180mcu_fd_sc_mcu7t5v0__aoi211_1 A1 A2 B C ZN VDD VSS
.ends

* Black-box entry subcircuit for gf180mcu_fd_sc_mcu7t5v0__nor4_2 abstract view
.subckt gf180mcu_fd_sc_mcu7t5v0__nor4_2 A1 A2 A3 A4 ZN VDD VSS
.ends

* Black-box entry subcircuit for gf180mcu_fd_sc_mcu7t5v0__clkinv_1 abstract view
.subckt gf180mcu_fd_sc_mcu7t5v0__clkinv_1 I ZN VDD VSS
.ends

* Black-box entry subcircuit for gf180mcu_fd_sc_mcu7t5v0__nand3_2 abstract view
.subckt gf180mcu_fd_sc_mcu7t5v0__nand3_2 A1 A2 A3 ZN VDD VSS
.ends

* Black-box entry subcircuit for gf180mcu_fd_sc_mcu7t5v0__or4_1 abstract view
.subckt gf180mcu_fd_sc_mcu7t5v0__or4_1 A1 A2 A3 A4 Z VDD VSS
.ends

* Black-box entry subcircuit for gf180mcu_fd_sc_mcu7t5v0__oai211_1 abstract view
.subckt gf180mcu_fd_sc_mcu7t5v0__oai211_1 A1 A2 B C ZN VDD VSS
.ends

* Black-box entry subcircuit for gf180mcu_fd_sc_mcu7t5v0__aoi22_1 abstract view
.subckt gf180mcu_fd_sc_mcu7t5v0__aoi22_1 A1 A2 B1 B2 ZN VDD VSS
.ends

* Black-box entry subcircuit for gf180mcu_fd_sc_mcu7t5v0__or2_1 abstract view
.subckt gf180mcu_fd_sc_mcu7t5v0__or2_1 A1 A2 Z VDD VSS
.ends

* Black-box entry subcircuit for gf180mcu_fd_sc_mcu7t5v0__nor3_2 abstract view
.subckt gf180mcu_fd_sc_mcu7t5v0__nor3_2 A1 A2 A3 ZN VDD VSS
.ends

.subckt divider clk cout1 cout10 cout2 cout3 cout4 cout5 cout6 cout7 cout8 cout9 vdd
+ vss
XFILLER_54_247 vdd vss gf180mcu_fd_sc_mcu7t5v0__fill_1
XFILLER_54_214 vdd vss gf180mcu_fd_sc_mcu7t5v0__fill_1
XFILLER_39_288 vdd vss gf180mcu_fd_sc_mcu7t5v0__fill_1
XFILLER_39_277 vdd vss gf180mcu_fd_sc_mcu7t5v0__fill_2
XFILLER_39_211 vdd vss gf180mcu_fd_sc_mcu7t5v0__fill_2
XFILLER_27_439 vdd vss gf180mcu_fd_sc_mcu7t5v0__fill_2
XFILLER_27_428 vdd vss gf180mcu_fd_sc_mcu7t5v0__fill_1
XTAP_188 vdd vss gf180mcu_fd_sc_mcu7t5v0__filltie
XTAP_177 vdd vss gf180mcu_fd_sc_mcu7t5v0__filltie
XTAP_199 vdd vss gf180mcu_fd_sc_mcu7t5v0__filltie
XFILLER_50_453 vdd vss gf180mcu_fd_sc_mcu7t5v0__fill_2
XFILLER_35_494 vdd vss gf180mcu_fd_sc_mcu7t5v0__fill_2
XFILLER_22_100 vdd vss gf180mcu_fd_sc_mcu7t5v0__fillcap_4
XFILLER_10_317 vdd vss gf180mcu_fd_sc_mcu7t5v0__fill_2
XFILLER_10_339 vdd vss gf180mcu_fd_sc_mcu7t5v0__fillcap_32
XANTENNA__0949__CLK clknet_leaf_2_clk vdd vss gf180mcu_fd_sc_mcu7t5v0__antenna
XFILLER_45_236 vdd vss gf180mcu_fd_sc_mcu7t5v0__fill_2
XFILLER_26_450 vdd vss gf180mcu_fd_sc_mcu7t5v0__fillcap_4
XFILLER_26_41 vdd vss gf180mcu_fd_sc_mcu7t5v0__fillcap_16
XFILLER_9_104 vdd vss gf180mcu_fd_sc_mcu7t5v0__fillcap_32
XFILLER_13_144 vdd vss gf180mcu_fd_sc_mcu7t5v0__fill_2
XFILLER_13_166 vdd vss gf180mcu_fd_sc_mcu7t5v0__fillcap_4
XFILLER_13_199 vdd vss gf180mcu_fd_sc_mcu7t5v0__fill_2
X_0965__49 net49 vdd vss gf180mcu_fd_sc_mcu7t5v0__tiel
XFILLER_5_354 vdd vss gf180mcu_fd_sc_mcu7t5v0__fill_1
XFILLER_3_89 vdd vss gf180mcu_fd_sc_mcu7t5v0__fill_1
X_0985_ _0261_ clknet_leaf_15_clk counter8\[0\] vdd vss gf180mcu_fd_sc_mcu7t5v0__dffq_1
XFILLER_42_239 vdd vss gf180mcu_fd_sc_mcu7t5v0__fillcap_8
XFILLER_35_280 vdd vss gf180mcu_fd_sc_mcu7t5v0__fillcap_4
XFILLER_50_250 vdd vss gf180mcu_fd_sc_mcu7t5v0__fillcap_32
XANTENNA__0650__A2 _0440_ vdd vss gf180mcu_fd_sc_mcu7t5v0__antenna
XFILLER_12_65 vdd vss gf180mcu_fd_sc_mcu7t5v0__fill_1
XFILLER_37_73 vdd vss gf180mcu_fd_sc_mcu7t5v0__fillcap_16
XFILLER_18_247 vdd vss gf180mcu_fd_sc_mcu7t5v0__fill_1
XFILLER_53_83 vdd vss gf180mcu_fd_sc_mcu7t5v0__fillcap_16
XFILLER_53_50 vdd vss gf180mcu_fd_sc_mcu7t5v0__fill_2
XFILLER_41_283 vdd vss gf180mcu_fd_sc_mcu7t5v0__fill_1
XFILLER_14_497 vdd vss gf180mcu_fd_sc_mcu7t5v0__fillcap_8
XFILLER_5_140 vdd vss gf180mcu_fd_sc_mcu7t5v0__fill_2
X_0770_ net203 clknet_leaf_47_clk counter6\[17\] vdd vss gf180mcu_fd_sc_mcu7t5v0__dffq_1
XFILLER_5_195 vdd vss gf180mcu_fd_sc_mcu7t5v0__fillcap_4
XANTENNA__0794__CLK clknet_leaf_22_clk vdd vss gf180mcu_fd_sc_mcu7t5v0__antenna
XFILLER_24_217 vdd vss gf180mcu_fd_sc_mcu7t5v0__fill_1
XFILLER_32_250 vdd vss gf180mcu_fd_sc_mcu7t5v0__fillcap_4
X_0968_ net46 clknet_leaf_32_clk counter9\[12\] vdd vss gf180mcu_fd_sc_mcu7t5v0__dffq_1
X_0899_ net94 clknet_leaf_38_clk counter\[1\] vdd vss gf180mcu_fd_sc_mcu7t5v0__dffq_1
XFILLER_59_114 vdd vss gf180mcu_fd_sc_mcu7t5v0__fillcap_16
XFILLER_55_320 vdd vss gf180mcu_fd_sc_mcu7t5v0__fillcap_8
X_0952__52 net52 vdd vss gf180mcu_fd_sc_mcu7t5v0__tiel
XFILLER_55_353 vdd vss gf180mcu_fd_sc_mcu7t5v0__fill_2
XFILLER_23_64 vdd vss gf180mcu_fd_sc_mcu7t5v0__fillcap_4
XFILLER_23_31 vdd vss gf180mcu_fd_sc_mcu7t5v0__fill_1
XFILLER_2_176 vdd vss gf180mcu_fd_sc_mcu7t5v0__fill_1
XFILLER_61_323 vdd vss gf180mcu_fd_sc_mcu7t5v0__fillcap_32
XFILLER_46_397 vdd vss gf180mcu_fd_sc_mcu7t5v0__fillcap_8
XFILLER_46_342 vdd vss gf180mcu_fd_sc_mcu7t5v0__fill_2
X_0822_ net162 clknet_leaf_5_clk counter4\[11\] vdd vss gf180mcu_fd_sc_mcu7t5v0__dffq_1
XFILLER_21_209 vdd vss gf180mcu_fd_sc_mcu7t5v0__fillcap_4
XFILLER_9_88 vdd vss gf180mcu_fd_sc_mcu7t5v0__fillcap_4
XFILLER_14_250 vdd vss gf180mcu_fd_sc_mcu7t5v0__fillcap_4
XFILLER_43_2 vdd vss gf180mcu_fd_sc_mcu7t5v0__fillcap_32
X_0684_ _0463_ _0464_ _0465_ _0235_ vdd vss gf180mcu_fd_sc_mcu7t5v0__nor3_1
X_0753_ _0037_ clknet_leaf_48_clk counter6\[0\] vdd vss gf180mcu_fd_sc_mcu7t5v0__dffq_1
XFILLER_6_460 vdd vss gf180mcu_fd_sc_mcu7t5v0__fill_1
XFILLER_64_172 vdd vss gf180mcu_fd_sc_mcu7t5v0__fillcap_4
XFILLER_52_389 vdd vss gf180mcu_fd_sc_mcu7t5v0__fill_1
XFILLER_40_507 vdd vss gf180mcu_fd_sc_mcu7t5v0__fill_2
XFILLER_37_353 vdd vss gf180mcu_fd_sc_mcu7t5v0__fill_2
XANTENNA_clkbuf_leaf_22_clk_I clknet_2_3__leaf_clk vdd vss gf180mcu_fd_sc_mcu7t5v0__antenna
XANTENNA_clkbuf_leaf_37_clk_I clknet_2_2__leaf_clk vdd vss gf180mcu_fd_sc_mcu7t5v0__antenna
XANTENNA__0656__I _0436_ vdd vss gf180mcu_fd_sc_mcu7t5v0__antenna
XFILLER_18_53 vdd vss gf180mcu_fd_sc_mcu7t5v0__fill_2
XFILLER_43_367 vdd vss gf180mcu_fd_sc_mcu7t5v0__fill_2
XFILLER_31_507 vdd vss gf180mcu_fd_sc_mcu7t5v0__fill_2
XFILLER_11_231 vdd vss gf180mcu_fd_sc_mcu7t5v0__fillcap_4
XTAP_507 vdd vss gf180mcu_fd_sc_mcu7t5v0__filltie
XFILLER_50_73 vdd vss gf180mcu_fd_sc_mcu7t5v0__fill_2
XFILLER_11_286 vdd vss gf180mcu_fd_sc_mcu7t5v0__fill_2
XTAP_529 vdd vss gf180mcu_fd_sc_mcu7t5v0__filltie
XTAP_518 vdd vss gf180mcu_fd_sc_mcu7t5v0__filltie
XFILLER_3_496 vdd vss gf180mcu_fd_sc_mcu7t5v0__fill_1
XFILLER_19_320 vdd vss gf180mcu_fd_sc_mcu7t5v0__fill_2
XFILLER_34_389 vdd vss gf180mcu_fd_sc_mcu7t5v0__fill_1
XANTENNA__0832__CLK clknet_leaf_3_clk vdd vss gf180mcu_fd_sc_mcu7t5v0__antenna
XFILLER_22_507 vdd vss gf180mcu_fd_sc_mcu7t5v0__fill_2
X_0805_ net174 clknet_leaf_30_clk counter5\[23\] vdd vss gf180mcu_fd_sc_mcu7t5v0__dffq_1
X_0736_ net230 clknet_leaf_10_clk counter7\[12\] vdd vss gf180mcu_fd_sc_mcu7t5v0__dffq_1
X_0598_ _0410_ _0409_ _0411_ _0038_ vdd vss gf180mcu_fd_sc_mcu7t5v0__nor3_1
X_0667_ counter10\[7\] _0453_ _0454_ vdd vss gf180mcu_fd_sc_mcu7t5v0__xor2_1
XFILLER_65_492 vdd vss gf180mcu_fd_sc_mcu7t5v0__fillcap_4
XFILLER_57_415 vdd vss gf180mcu_fd_sc_mcu7t5v0__fill_1
XFILLER_52_142 vdd vss gf180mcu_fd_sc_mcu7t5v0__fillcap_16
XFILLER_13_507 vdd vss gf180mcu_fd_sc_mcu7t5v0__fill_2
XFILLER_4_238 vdd vss gf180mcu_fd_sc_mcu7t5v0__fillcap_8
XFILLER_0_422 vdd vss gf180mcu_fd_sc_mcu7t5v0__fillcap_32
XFILLER_45_73 vdd vss gf180mcu_fd_sc_mcu7t5v0__fill_1
XANTENNA__0855__CLK clknet_leaf_43_clk vdd vss gf180mcu_fd_sc_mcu7t5v0__antenna
XFILLER_28_183 vdd vss gf180mcu_fd_sc_mcu7t5v0__fill_2
XFILLER_16_378 vdd vss gf180mcu_fd_sc_mcu7t5v0__fill_1
XFILLER_16_389 vdd vss gf180mcu_fd_sc_mcu7t5v0__fill_1
XFILLER_6_34 vdd vss gf180mcu_fd_sc_mcu7t5v0__fill_1
X_0521_ _0344_ _0345_ _0346_ _0347_ _0348_ vdd vss gf180mcu_fd_sc_mcu7t5v0__and4_1
XTAP_348 vdd vss gf180mcu_fd_sc_mcu7t5v0__filltie
XTAP_337 vdd vss gf180mcu_fd_sc_mcu7t5v0__filltie
XTAP_326 vdd vss gf180mcu_fd_sc_mcu7t5v0__filltie
XTAP_315 vdd vss gf180mcu_fd_sc_mcu7t5v0__filltie
XTAP_304 vdd vss gf180mcu_fd_sc_mcu7t5v0__filltie
XFILLER_6_67 vdd vss gf180mcu_fd_sc_mcu7t5v0__fill_2
XTAP_359 vdd vss gf180mcu_fd_sc_mcu7t5v0__filltie
XFILLER_20_4 vdd vss gf180mcu_fd_sc_mcu7t5v0__fill_1
XFILLER_62_495 vdd vss gf180mcu_fd_sc_mcu7t5v0__fillcap_8
XANTENNA__1010__CLK clknet_leaf_13_clk vdd vss gf180mcu_fd_sc_mcu7t5v0__antenna
X_1004_ net19 clknet_leaf_6_clk counter8\[19\] vdd vss gf180mcu_fd_sc_mcu7t5v0__dffq_1
XFILLER_34_175 vdd vss gf180mcu_fd_sc_mcu7t5v0__fill_2
XFILLER_22_326 vdd vss gf180mcu_fd_sc_mcu7t5v0__fill_2
XANTENNA__0728__CLK clknet_leaf_11_clk vdd vss gf180mcu_fd_sc_mcu7t5v0__antenna
XFILLER_30_392 vdd vss gf180mcu_fd_sc_mcu7t5v0__fillcap_8
XFILLER_57_201 vdd vss gf180mcu_fd_sc_mcu7t5v0__fill_2
XANTENNA__0878__CLK clknet_leaf_26_clk vdd vss gf180mcu_fd_sc_mcu7t5v0__antenna
X_0719_ _0302_ _0294_ _0303_ _0266_ vdd vss gf180mcu_fd_sc_mcu7t5v0__nor3_1
XFILLER_1_208 vdd vss gf180mcu_fd_sc_mcu7t5v0__fillcap_4
XFILLER_40_101 vdd vss gf180mcu_fd_sc_mcu7t5v0__fillcap_4
XFILLER_40_112 vdd vss gf180mcu_fd_sc_mcu7t5v0__fill_2
XFILLER_21_381 vdd vss gf180mcu_fd_sc_mcu7t5v0__fillcap_8
XFILLER_13_348 vdd vss gf180mcu_fd_sc_mcu7t5v0__fillcap_4
XFILLER_31_97 vdd vss gf180mcu_fd_sc_mcu7t5v0__fillcap_4
Xoutput7 net7 cout6 vdd vss gf180mcu_fd_sc_mcu7t5v0__clkbuf_3
XFILLER_63_215 vdd vss gf180mcu_fd_sc_mcu7t5v0__fillcap_64
XFILLER_56_83 vdd vss gf180mcu_fd_sc_mcu7t5v0__fillcap_8
X_0837__147 net147 vdd vss gf180mcu_fd_sc_mcu7t5v0__tiel
XFILLER_44_451 vdd vss gf180mcu_fd_sc_mcu7t5v0__fill_1
XFILLER_31_101 vdd vss gf180mcu_fd_sc_mcu7t5v0__fill_1
XFILLER_16_131 vdd vss gf180mcu_fd_sc_mcu7t5v0__fill_2
XFILLER_16_175 vdd vss gf180mcu_fd_sc_mcu7t5v0__fill_2
XFILLER_12_392 vdd vss gf180mcu_fd_sc_mcu7t5v0__fill_1
XTAP_189 vdd vss gf180mcu_fd_sc_mcu7t5v0__filltie
XTAP_178 vdd vss gf180mcu_fd_sc_mcu7t5v0__filltie
X_0504_ counter3\[2\] _0332_ _0003_ vdd vss gf180mcu_fd_sc_mcu7t5v0__nor2_1
XTAP_167 vdd vss gf180mcu_fd_sc_mcu7t5v0__filltie
XTAP_145 vdd vss gf180mcu_fd_sc_mcu7t5v0__filltie
XTAP_156 vdd vss gf180mcu_fd_sc_mcu7t5v0__filltie
XFILLER_22_123 vdd vss gf180mcu_fd_sc_mcu7t5v0__fill_2
XFILLER_45_215 vdd vss gf180mcu_fd_sc_mcu7t5v0__fill_1
XFILLER_53_281 vdd vss gf180mcu_fd_sc_mcu7t5v0__fill_2
XFILLER_26_495 vdd vss gf180mcu_fd_sc_mcu7t5v0__fillcap_8
XFILLER_42_52 vdd vss gf180mcu_fd_sc_mcu7t5v0__fill_2
XANTENNA__0708__A1 _0295_ vdd vss gf180mcu_fd_sc_mcu7t5v0__antenna
XFILLER_3_68 vdd vss gf180mcu_fd_sc_mcu7t5v0__fill_2
XFILLER_51_207 vdd vss gf180mcu_fd_sc_mcu7t5v0__fillcap_4
X_0984_ _0007_ clknet_leaf_12_clk net8 vdd vss gf180mcu_fd_sc_mcu7t5v0__dffq_1
XFILLER_51_229 vdd vss gf180mcu_fd_sc_mcu7t5v0__fillcap_4
XFILLER_44_270 vdd vss gf180mcu_fd_sc_mcu7t5v0__fill_2
XFILLER_32_498 vdd vss gf180mcu_fd_sc_mcu7t5v0__fillcap_8
XFILLER_17_495 vdd vss gf180mcu_fd_sc_mcu7t5v0__fill_2
XFILLER_8_160 vdd vss gf180mcu_fd_sc_mcu7t5v0__fillcap_16
XFILLER_67_384 vdd vss gf180mcu_fd_sc_mcu7t5v0__fill_1
XFILLER_27_215 vdd vss gf180mcu_fd_sc_mcu7t5v0__fill_1
XFILLER_27_204 vdd vss gf180mcu_fd_sc_mcu7t5v0__fillcap_8
XFILLER_23_421 vdd vss gf180mcu_fd_sc_mcu7t5v0__fillcap_4
XANTENNA__0916__CLK clknet_leaf_36_clk vdd vss gf180mcu_fd_sc_mcu7t5v0__antenna
X_0827__157 net157 vdd vss gf180mcu_fd_sc_mcu7t5v0__tiel
XFILLER_6_108 vdd vss gf180mcu_fd_sc_mcu7t5v0__fillcap_16
XFILLER_10_115 vdd vss gf180mcu_fd_sc_mcu7t5v0__fill_2
XFILLER_12_44 vdd vss gf180mcu_fd_sc_mcu7t5v0__fill_2
XFILLER_12_55 vdd vss gf180mcu_fd_sc_mcu7t5v0__fill_2
XFILLER_2_347 vdd vss gf180mcu_fd_sc_mcu7t5v0__fill_1
XFILLER_2_314 vdd vss gf180mcu_fd_sc_mcu7t5v0__fillcap_4
XFILLER_58_351 vdd vss gf180mcu_fd_sc_mcu7t5v0__fill_2
XFILLER_46_502 vdd vss gf180mcu_fd_sc_mcu7t5v0__fillcap_4
XFILLER_53_73 vdd vss gf180mcu_fd_sc_mcu7t5v0__fill_1
XFILLER_26_292 vdd vss gf180mcu_fd_sc_mcu7t5v0__fill_1
XFILLER_14_443 vdd vss gf180mcu_fd_sc_mcu7t5v0__fillcap_16
XFILLER_5_152 vdd vss gf180mcu_fd_sc_mcu7t5v0__fillcap_4
XANTENNA__0939__CLK clknet_leaf_1_clk vdd vss gf180mcu_fd_sc_mcu7t5v0__antenna
XFILLER_64_321 vdd vss gf180mcu_fd_sc_mcu7t5v0__fillcap_64
XFILLER_17_281 vdd vss gf180mcu_fd_sc_mcu7t5v0__fill_2
X_0967_ net47 clknet_leaf_31_clk counter9\[11\] vdd vss gf180mcu_fd_sc_mcu7t5v0__dffq_1
XFILLER_59_137 vdd vss gf180mcu_fd_sc_mcu7t5v0__fillcap_4
XFILLER_59_104 vdd vss gf180mcu_fd_sc_mcu7t5v0__fill_2
X_0898_ _0177_ clknet_leaf_37_clk counter\[0\] vdd vss gf180mcu_fd_sc_mcu7t5v0__dffq_1
XFILLER_23_262 vdd vss gf180mcu_fd_sc_mcu7t5v0__fillcap_16
XFILLER_7_428 vdd vss gf180mcu_fd_sc_mcu7t5v0__fill_1
XFILLER_48_40 vdd vss gf180mcu_fd_sc_mcu7t5v0__fillcap_16
XFILLER_3_2 vdd vss gf180mcu_fd_sc_mcu7t5v0__fill_1
XFILLER_61_357 vdd vss gf180mcu_fd_sc_mcu7t5v0__fill_1
XFILLER_46_321 vdd vss gf180mcu_fd_sc_mcu7t5v0__fill_1
XFILLER_0_69 vdd vss gf180mcu_fd_sc_mcu7t5v0__fill_1
XFILLER_9_12 vdd vss gf180mcu_fd_sc_mcu7t5v0__fill_1
X_0752_ _0005_ clknet_leaf_25_clk net6 vdd vss gf180mcu_fd_sc_mcu7t5v0__dffq_1
X_0821_ net163 clknet_leaf_5_clk counter4\[10\] vdd vss gf180mcu_fd_sc_mcu7t5v0__dffq_1
XFILLER_9_45 vdd vss gf180mcu_fd_sc_mcu7t5v0__fill_1
XFILLER_9_56 vdd vss gf180mcu_fd_sc_mcu7t5v0__fillcap_8
XFILLER_50_4 vdd vss gf180mcu_fd_sc_mcu7t5v0__fill_1
XFILLER_36_2 vdd vss gf180mcu_fd_sc_mcu7t5v0__fillcap_32
X_0683_ counter9\[1\] _0456_ counter9\[2\] _0465_ vdd vss gf180mcu_fd_sc_mcu7t5v0__aoi21_1
XANTENNA__0761__CLK clknet_leaf_4_clk vdd vss gf180mcu_fd_sc_mcu7t5v0__antenna
XFILLER_37_365 vdd vss gf180mcu_fd_sc_mcu7t5v0__fillcap_4
XFILLER_37_398 vdd vss gf180mcu_fd_sc_mcu7t5v0__fill_2
X_0817__167 net167 vdd vss gf180mcu_fd_sc_mcu7t5v0__tiel
XFILLER_43_357 vdd vss gf180mcu_fd_sc_mcu7t5v0__fill_1
XFILLER_28_321 vdd vss gf180mcu_fd_sc_mcu7t5v0__fill_1
XFILLER_28_332 vdd vss gf180mcu_fd_sc_mcu7t5v0__fillcap_8
XFILLER_11_276 vdd vss gf180mcu_fd_sc_mcu7t5v0__fillcap_8
XFILLER_59_61 vdd vss gf180mcu_fd_sc_mcu7t5v0__fill_1
XTAP_519 vdd vss gf180mcu_fd_sc_mcu7t5v0__filltie
XTAP_508 vdd vss gf180mcu_fd_sc_mcu7t5v0__filltie
XFILLER_3_431 vdd vss gf180mcu_fd_sc_mcu7t5v0__fillcap_16
XFILLER_19_332 vdd vss gf180mcu_fd_sc_mcu7t5v0__fill_2
XFILLER_19_354 vdd vss gf180mcu_fd_sc_mcu7t5v0__fill_1
XFILLER_46_184 vdd vss gf180mcu_fd_sc_mcu7t5v0__fill_1
XFILLER_34_379 vdd vss gf180mcu_fd_sc_mcu7t5v0__fill_2
X_0735_ net231 clknet_leaf_10_clk counter7\[11\] vdd vss gf180mcu_fd_sc_mcu7t5v0__dffq_1
X_0804_ net175 clknet_leaf_27_clk counter5\[22\] vdd vss gf180mcu_fd_sc_mcu7t5v0__dffq_1
XFILLER_57_405 vdd vss gf180mcu_fd_sc_mcu7t5v0__fillcap_8
X_0597_ counter6\[1\] counter6\[0\] _0411_ vdd vss gf180mcu_fd_sc_mcu7t5v0__nor2_1
X_0666_ counter10\[6\] _0436_ _0437_ _0453_ vdd vss gf180mcu_fd_sc_mcu7t5v0__nand3_1
X_0907__86 net86 vdd vss gf180mcu_fd_sc_mcu7t5v0__tiel
XFILLER_25_357 vdd vss gf180mcu_fd_sc_mcu7t5v0__fill_1
XFILLER_25_324 vdd vss gf180mcu_fd_sc_mcu7t5v0__fill_1
Xclkbuf_leaf_49_clk clknet_2_0__leaf_clk clknet_leaf_49_clk vdd vss gf180mcu_fd_sc_mcu7t5v0__clkbuf_16
XFILLER_52_176 vdd vss gf180mcu_fd_sc_mcu7t5v0__fill_1
XFILLER_40_316 vdd vss gf180mcu_fd_sc_mcu7t5v0__fill_2
XFILLER_4_228 vdd vss gf180mcu_fd_sc_mcu7t5v0__fill_2
X_0798__181 net181 vdd vss gf180mcu_fd_sc_mcu7t5v0__tiel
XFILLER_0_489 vdd vss gf180mcu_fd_sc_mcu7t5v0__fill_1
XFILLER_56_482 vdd vss gf180mcu_fd_sc_mcu7t5v0__fillcap_16
XFILLER_56_460 vdd vss gf180mcu_fd_sc_mcu7t5v0__fill_1
XFILLER_43_121 vdd vss gf180mcu_fd_sc_mcu7t5v0__fillcap_8
XFILLER_61_73 vdd vss gf180mcu_fd_sc_mcu7t5v0__fill_1
X_0520_ counter5\[6\] counter5\[5\] counter5\[27\] _0347_ vdd vss gf180mcu_fd_sc_mcu7t5v0__nor3_1
XTAP_349 vdd vss gf180mcu_fd_sc_mcu7t5v0__filltie
XTAP_338 vdd vss gf180mcu_fd_sc_mcu7t5v0__filltie
XTAP_327 vdd vss gf180mcu_fd_sc_mcu7t5v0__filltie
XTAP_316 vdd vss gf180mcu_fd_sc_mcu7t5v0__filltie
XTAP_305 vdd vss gf180mcu_fd_sc_mcu7t5v0__filltie
XFILLER_3_272 vdd vss gf180mcu_fd_sc_mcu7t5v0__fillcap_8
XANTENNA_clkbuf_leaf_21_clk_I clknet_2_3__leaf_clk vdd vss gf180mcu_fd_sc_mcu7t5v0__antenna
X_1003_ net20 clknet_leaf_17_clk counter8\[18\] vdd vss gf180mcu_fd_sc_mcu7t5v0__dffq_1
X_0904__89 net89 vdd vss gf180mcu_fd_sc_mcu7t5v0__tiel
XFILLER_19_195 vdd vss gf180mcu_fd_sc_mcu7t5v0__fill_2
XFILLER_62_463 vdd vss gf180mcu_fd_sc_mcu7t5v0__fillcap_32
XFILLER_22_316 vdd vss gf180mcu_fd_sc_mcu7t5v0__fill_2
XANTENNA_clkbuf_leaf_36_clk_I clknet_2_2__leaf_clk vdd vss gf180mcu_fd_sc_mcu7t5v0__antenna
X_0718_ counter8\[4\] _0299_ counter8\[5\] _0303_ vdd vss gf180mcu_fd_sc_mcu7t5v0__aoi21_1
XFILLER_57_224 vdd vss gf180mcu_fd_sc_mcu7t5v0__fill_1
X_0649_ counter10\[1\] _0441_ _0442_ vdd vss gf180mcu_fd_sc_mcu7t5v0__xnor2_1
XFILLER_38_460 vdd vss gf180mcu_fd_sc_mcu7t5v0__fill_1
XFILLER_15_66 vdd vss gf180mcu_fd_sc_mcu7t5v0__fillcap_4
XFILLER_40_179 vdd vss gf180mcu_fd_sc_mcu7t5v0__fillcap_4
X_0977__37 net37 vdd vss gf180mcu_fd_sc_mcu7t5v0__tiel
Xoutput8 net8 cout7 vdd vss gf180mcu_fd_sc_mcu7t5v0__clkbuf_3
Xoutput10 net10 cout9 vdd vss gf180mcu_fd_sc_mcu7t5v0__clkbuf_3
XANTENNA__0822__CLK clknet_leaf_5_clk vdd vss gf180mcu_fd_sc_mcu7t5v0__antenna
XFILLER_56_51 vdd vss gf180mcu_fd_sc_mcu7t5v0__fill_1
XFILLER_48_224 vdd vss gf180mcu_fd_sc_mcu7t5v0__fill_2
XFILLER_48_202 vdd vss gf180mcu_fd_sc_mcu7t5v0__fill_2
XFILLER_36_408 vdd vss gf180mcu_fd_sc_mcu7t5v0__fill_2
XFILLER_44_463 vdd vss gf180mcu_fd_sc_mcu7t5v0__fill_1
XFILLER_31_168 vdd vss gf180mcu_fd_sc_mcu7t5v0__fillcap_4
XFILLER_31_135 vdd vss gf180mcu_fd_sc_mcu7t5v0__fillcap_4
XANTENNA__0671__B2 _0393_ vdd vss gf180mcu_fd_sc_mcu7t5v0__antenna
XFILLER_8_386 vdd vss gf180mcu_fd_sc_mcu7t5v0__fillcap_4
XTAP_179 vdd vss gf180mcu_fd_sc_mcu7t5v0__filltie
XTAP_168 vdd vss gf180mcu_fd_sc_mcu7t5v0__filltie
XTAP_146 vdd vss gf180mcu_fd_sc_mcu7t5v0__filltie
XTAP_157 vdd vss gf180mcu_fd_sc_mcu7t5v0__filltie
X_0503_ _0324_ _0325_ _0326_ _0331_ _0332_ vdd vss gf180mcu_fd_sc_mcu7t5v0__nand4_2
XFILLER_50_422 vdd vss gf180mcu_fd_sc_mcu7t5v0__fill_2
XFILLER_35_496 vdd vss gf180mcu_fd_sc_mcu7t5v0__fill_1
X_0788__191 net191 vdd vss gf180mcu_fd_sc_mcu7t5v0__tiel
XFILLER_22_179 vdd vss gf180mcu_fd_sc_mcu7t5v0__fill_2
XFILLER_22_146 vdd vss gf180mcu_fd_sc_mcu7t5v0__fill_1
XANTENNA__0845__CLK clknet_leaf_43_clk vdd vss gf180mcu_fd_sc_mcu7t5v0__antenna
XFILLER_2_507 vdd vss gf180mcu_fd_sc_mcu7t5v0__fill_2
X_0795__184 net184 vdd vss gf180mcu_fd_sc_mcu7t5v0__tiel
XFILLER_45_238 vdd vss gf180mcu_fd_sc_mcu7t5v0__fill_1
XANTENNA__0995__CLK clknet_leaf_17_clk vdd vss gf180mcu_fd_sc_mcu7t5v0__antenna
XFILLER_26_32 vdd vss gf180mcu_fd_sc_mcu7t5v0__fill_2
XFILLER_42_42 vdd vss gf180mcu_fd_sc_mcu7t5v0__fill_2
XFILLER_41_499 vdd vss gf180mcu_fd_sc_mcu7t5v0__fillcap_8
XFILLER_26_463 vdd vss gf180mcu_fd_sc_mcu7t5v0__fillcap_32
XFILLER_26_65 vdd vss gf180mcu_fd_sc_mcu7t5v0__fillcap_4
XFILLER_42_97 vdd vss gf180mcu_fd_sc_mcu7t5v0__fill_2
XFILLER_5_334 vdd vss gf180mcu_fd_sc_mcu7t5v0__fill_2
XFILLER_67_72 vdd vss gf180mcu_fd_sc_mcu7t5v0__fillcap_32
XANTENNA__1000__CLK clknet_leaf_18_clk vdd vss gf180mcu_fd_sc_mcu7t5v0__antenna
XFILLER_64_503 vdd vss gf180mcu_fd_sc_mcu7t5v0__fillcap_4
XFILLER_32_466 vdd vss gf180mcu_fd_sc_mcu7t5v0__fillcap_32
X_0983_ net31 clknet_leaf_33_clk counter9\[27\] vdd vss gf180mcu_fd_sc_mcu7t5v0__dffq_1
XANTENNA__0868__CLK clknet_leaf_38_clk vdd vss gf180mcu_fd_sc_mcu7t5v0__antenna
XFILLER_66_2 vdd vss gf180mcu_fd_sc_mcu7t5v0__fillcap_32
XFILLER_67_352 vdd vss gf180mcu_fd_sc_mcu7t5v0__fillcap_32
XFILLER_23_499 vdd vss gf180mcu_fd_sc_mcu7t5v0__fillcap_8
XFILLER_23_444 vdd vss gf180mcu_fd_sc_mcu7t5v0__fill_2
XFILLER_10_105 vdd vss gf180mcu_fd_sc_mcu7t5v0__fill_1
XFILLER_12_34 vdd vss gf180mcu_fd_sc_mcu7t5v0__fill_1
XFILLER_2_337 vdd vss gf180mcu_fd_sc_mcu7t5v0__fillcap_8
XFILLER_18_227 vdd vss gf180mcu_fd_sc_mcu7t5v0__fillcap_16
XFILLER_41_241 vdd vss gf180mcu_fd_sc_mcu7t5v0__fill_1
XFILLER_49_341 vdd vss gf180mcu_fd_sc_mcu7t5v0__fillcap_8
XFILLER_52_506 vdd vss gf180mcu_fd_sc_mcu7t5v0__fill_2
XFILLER_32_241 vdd vss gf180mcu_fd_sc_mcu7t5v0__fill_2
X_0966_ net48 clknet_leaf_33_clk counter9\[10\] vdd vss gf180mcu_fd_sc_mcu7t5v0__dffq_1
X_0897_ _0000_ clknet_leaf_50_clk net2 vdd vss gf180mcu_fd_sc_mcu7t5v0__dffq_1
XFILLER_55_333 vdd vss gf180mcu_fd_sc_mcu7t5v0__fillcap_16
X_0792__187 net187 vdd vss gf180mcu_fd_sc_mcu7t5v0__tiel
XFILLER_28_503 vdd vss gf180mcu_fd_sc_mcu7t5v0__fillcap_4
XFILLER_15_219 vdd vss gf180mcu_fd_sc_mcu7t5v0__fill_1
X_0833__151 net151 vdd vss gf180mcu_fd_sc_mcu7t5v0__tiel
XFILLER_11_469 vdd vss gf180mcu_fd_sc_mcu7t5v0__fill_2
XFILLER_2_101 vdd vss gf180mcu_fd_sc_mcu7t5v0__fillcap_4
XFILLER_48_96 vdd vss gf180mcu_fd_sc_mcu7t5v0__fill_2
XFILLER_46_344 vdd vss gf180mcu_fd_sc_mcu7t5v0__fill_1
XFILLER_0_37 vdd vss gf180mcu_fd_sc_mcu7t5v0__fillcap_32
XFILLER_14_241 vdd vss gf180mcu_fd_sc_mcu7t5v0__fillcap_4
X_0751_ net215 clknet_leaf_11_clk counter7\[27\] vdd vss gf180mcu_fd_sc_mcu7t5v0__dffq_1
X_0820_ net164 clknet_leaf_6_clk counter4\[9\] vdd vss gf180mcu_fd_sc_mcu7t5v0__dffq_1
XFILLER_9_68 vdd vss gf180mcu_fd_sc_mcu7t5v0__fill_2
XFILLER_10_480 vdd vss gf180mcu_fd_sc_mcu7t5v0__fillcap_16
XFILLER_29_2 vdd vss gf180mcu_fd_sc_mcu7t5v0__fillcap_8
X_0682_ _0460_ _0464_ vdd vss gf180mcu_fd_sc_mcu7t5v0__clkbuf_1
XANTENNA__0906__CLK clknet_leaf_38_clk vdd vss gf180mcu_fd_sc_mcu7t5v0__antenna
XFILLER_56_108 vdd vss gf180mcu_fd_sc_mcu7t5v0__fill_1
XFILLER_52_314 vdd vss gf180mcu_fd_sc_mcu7t5v0__fillcap_4
XFILLER_49_193 vdd vss gf180mcu_fd_sc_mcu7t5v0__fillcap_16
X_1009__14 net14 vdd vss gf180mcu_fd_sc_mcu7t5v0__tiel
XFILLER_52_369 vdd vss gf180mcu_fd_sc_mcu7t5v0__fillcap_16
X_0748__218 net218 vdd vss gf180mcu_fd_sc_mcu7t5v0__tiel
X_0949_ net55 clknet_leaf_2_clk counter10\[22\] vdd vss gf180mcu_fd_sc_mcu7t5v0__dffq_1
XFILLER_28_300 vdd vss gf180mcu_fd_sc_mcu7t5v0__fillcap_16
XFILLER_55_141 vdd vss gf180mcu_fd_sc_mcu7t5v0__fill_1
XFILLER_43_347 vdd vss gf180mcu_fd_sc_mcu7t5v0__fillcap_4
XFILLER_28_377 vdd vss gf180mcu_fd_sc_mcu7t5v0__fillcap_4
XFILLER_50_75 vdd vss gf180mcu_fd_sc_mcu7t5v0__fill_1
XFILLER_7_215 vdd vss gf180mcu_fd_sc_mcu7t5v0__fillcap_8
XFILLER_7_259 vdd vss gf180mcu_fd_sc_mcu7t5v0__fill_2
XFILLER_11_211 vdd vss gf180mcu_fd_sc_mcu7t5v0__fill_2
XFILLER_11_288 vdd vss gf180mcu_fd_sc_mcu7t5v0__fill_1
XFILLER_59_73 vdd vss gf180mcu_fd_sc_mcu7t5v0__fill_1
XTAP_509 vdd vss gf180mcu_fd_sc_mcu7t5v0__filltie
XFILLER_3_421 vdd vss gf180mcu_fd_sc_mcu7t5v0__fillcap_4
XFILLER_61_100 vdd vss gf180mcu_fd_sc_mcu7t5v0__fillcap_4
XFILLER_59_491 vdd vss gf180mcu_fd_sc_mcu7t5v0__fillcap_4
XFILLER_46_130 vdd vss gf180mcu_fd_sc_mcu7t5v0__fillcap_8
XFILLER_38_108 vdd vss gf180mcu_fd_sc_mcu7t5v0__fill_1
XFILLER_61_144 vdd vss gf180mcu_fd_sc_mcu7t5v0__fillcap_8
XFILLER_42_380 vdd vss gf180mcu_fd_sc_mcu7t5v0__fill_2
X_1006__17 net17 vdd vss gf180mcu_fd_sc_mcu7t5v0__tiel
X_0734_ net232 clknet_leaf_13_clk counter7\[10\] vdd vss gf180mcu_fd_sc_mcu7t5v0__dffq_1
X_0803_ net176 clknet_leaf_30_clk counter5\[21\] vdd vss gf180mcu_fd_sc_mcu7t5v0__dffq_1
X_0665_ _0448_ _0440_ _0452_ _0211_ vdd vss gf180mcu_fd_sc_mcu7t5v0__aoi21_1
XFILLER_57_428 vdd vss gf180mcu_fd_sc_mcu7t5v0__fill_1
X_0823__161 net161 vdd vss gf180mcu_fd_sc_mcu7t5v0__tiel
X_0596_ counter6\[1\] counter6\[0\] _0410_ vdd vss gf180mcu_fd_sc_mcu7t5v0__and2_1
XFILLER_37_174 vdd vss gf180mcu_fd_sc_mcu7t5v0__fill_2
XFILLER_37_130 vdd vss gf180mcu_fd_sc_mcu7t5v0__fill_2
X_0830__154 net154 vdd vss gf180mcu_fd_sc_mcu7t5v0__tiel
XFILLER_29_10 vdd vss gf180mcu_fd_sc_mcu7t5v0__fillcap_4
XFILLER_0_402 vdd vss gf180mcu_fd_sc_mcu7t5v0__fillcap_16
XFILLER_20_34 vdd vss gf180mcu_fd_sc_mcu7t5v0__fill_1
XFILLER_0_457 vdd vss gf180mcu_fd_sc_mcu7t5v0__fillcap_32
XANTENNA__0751__CLK clknet_leaf_11_clk vdd vss gf180mcu_fd_sc_mcu7t5v0__antenna
XFILLER_43_144 vdd vss gf180mcu_fd_sc_mcu7t5v0__fill_1
XFILLER_43_133 vdd vss gf180mcu_fd_sc_mcu7t5v0__fillcap_8
XFILLER_6_69 vdd vss gf180mcu_fd_sc_mcu7t5v0__fill_1
XFILLER_39_428 vdd vss gf180mcu_fd_sc_mcu7t5v0__fillcap_64
XFILLER_39_417 vdd vss gf180mcu_fd_sc_mcu7t5v0__fillcap_8
XTAP_339 vdd vss gf180mcu_fd_sc_mcu7t5v0__filltie
XTAP_328 vdd vss gf180mcu_fd_sc_mcu7t5v0__filltie
XTAP_317 vdd vss gf180mcu_fd_sc_mcu7t5v0__filltie
XTAP_306 vdd vss gf180mcu_fd_sc_mcu7t5v0__filltie
XFILLER_66_247 vdd vss gf180mcu_fd_sc_mcu7t5v0__fill_1
X_0738__228 net228 vdd vss gf180mcu_fd_sc_mcu7t5v0__tiel
X_1002_ net21 clknet_leaf_6_clk counter8\[17\] vdd vss gf180mcu_fd_sc_mcu7t5v0__dffq_1
XFILLER_34_122 vdd vss gf180mcu_fd_sc_mcu7t5v0__fill_2
XFILLER_19_141 vdd vss gf180mcu_fd_sc_mcu7t5v0__fill_1
XFILLER_34_199 vdd vss gf180mcu_fd_sc_mcu7t5v0__fillcap_8
XFILLER_15_391 vdd vss gf180mcu_fd_sc_mcu7t5v0__fill_2
X_0717_ counter8\[4\] counter8\[5\] _0299_ _0302_ vdd vss gf180mcu_fd_sc_mcu7t5v0__and3_1
X_0648_ _0393_ _0440_ _0441_ _0205_ vdd vss gf180mcu_fd_sc_mcu7t5v0__aoi21_1
X_0579_ _0394_ _0398_ _0399_ _0010_ vdd vss gf180mcu_fd_sc_mcu7t5v0__nor3_1
XFILLER_57_203 vdd vss gf180mcu_fd_sc_mcu7t5v0__fill_1
XFILLER_45_409 vdd vss gf180mcu_fd_sc_mcu7t5v0__fill_2
X_0903__90 net90 vdd vss gf180mcu_fd_sc_mcu7t5v0__tiel
XFILLER_25_199 vdd vss gf180mcu_fd_sc_mcu7t5v0__fillcap_8
XFILLER_25_144 vdd vss gf180mcu_fd_sc_mcu7t5v0__fill_1
XANTENNA__0774__CLK clknet_leaf_42_clk vdd vss gf180mcu_fd_sc_mcu7t5v0__antenna
Xoutput9 net9 cout8 vdd vss gf180mcu_fd_sc_mcu7t5v0__clkbuf_3
XFILLER_48_247 vdd vss gf180mcu_fd_sc_mcu7t5v0__fill_1
XFILLER_29_472 vdd vss gf180mcu_fd_sc_mcu7t5v0__fillcap_4
XFILLER_29_461 vdd vss gf180mcu_fd_sc_mcu7t5v0__fill_1
XFILLER_16_100 vdd vss gf180mcu_fd_sc_mcu7t5v0__fill_2
XFILLER_16_133 vdd vss gf180mcu_fd_sc_mcu7t5v0__fill_1
XFILLER_8_321 vdd vss gf180mcu_fd_sc_mcu7t5v0__fill_1
XFILLER_12_372 vdd vss gf180mcu_fd_sc_mcu7t5v0__fillcap_4
XFILLER_12_383 vdd vss gf180mcu_fd_sc_mcu7t5v0__fillcap_4
X_0502_ _0327_ _0328_ _0329_ _0330_ _0331_ vdd vss gf180mcu_fd_sc_mcu7t5v0__and4_1
XANTENNA__0797__CLK clknet_leaf_18_clk vdd vss gf180mcu_fd_sc_mcu7t5v0__antenna
XFILLER_39_247 vdd vss gf180mcu_fd_sc_mcu7t5v0__fill_1