*SPEF "ieee 1481-1999"
*DESIGN "divider"
*DATE "11:11:11 Fri 11 11, 1111"
*VENDOR "OpenRCX"
*PROGRAM "Parallel Extraction"
*VERSION "1.0"
*DESIGN_FLOW "NAME_SCOPE LOCAL" "PIN_CAP NONE"
*DIVIDER /
*DELIMITER :
*BUS_DELIMITER []
*T_UNIT 1 NS
*C_UNIT 1 PF
*R_UNIT 1 OHM
*L_UNIT 1 HENRY

*NAME_MAP
*1 clk
*2 cout1
*3 cout10
*4 cout2
*5 cout3
*6 cout4
*7 cout5
*8 cout6
*9 cout7
*10 cout8
*11 cout9
*14 _0000_
*15 _0001_
*16 _0002_
*17 _0003_
*18 _0004_
*19 _0005_
*20 _0006_
*21 _0007_
*22 _0008_
*23 _0009_
*24 _0010_
*25 _0011_
*26 _0012_
*27 _0013_
*28 _0014_
*29 _0015_
*30 _0037_
*31 _0038_
*32 _0039_
*33 _0040_
*34 _0041_
*35 _0042_
*36 _0065_
*37 _0066_
*38 _0067_
*39 _0068_
*40 _0069_
*41 _0093_
*42 _0094_
*43 _0095_
*44 _0096_
*45 _0121_
*46 _0122_
*47 _0123_
*48 _0149_
*49 _0150_
*50 _0177_
*51 _0205_
*52 _0206_
*53 _0207_
*54 _0208_
*55 _0209_
*56 _0210_
*57 _0211_
*58 _0212_
*59 _0213_
*60 _0214_
*61 _0233_
*62 _0234_
*63 _0235_
*64 _0236_
*65 _0237_
*66 _0238_
*67 _0239_
*68 _0240_
*69 _0241_
*70 _0261_
*71 _0262_
*72 _0263_
*73 _0264_
*74 _0265_
*75 _0266_
*76 _0267_
*77 _0268_
*78 _0289_
*79 _0290_
*80 _0291_
*81 _0292_
*82 _0293_
*83 _0294_
*84 _0295_
*85 _0296_
*86 _0297_
*87 _0298_
*88 _0299_
*89 _0300_
*90 _0301_
*91 _0302_
*92 _0303_
*93 _0304_
*94 _0305_
*95 _0306_
*96 _0307_
*97 _0308_
*98 _0309_
*99 _0310_
*100 _0311_
*101 _0312_
*102 _0313_
*103 _0314_
*104 _0315_
*105 _0316_
*106 _0317_
*107 _0318_
*108 _0319_
*109 _0320_
*110 _0321_
*111 _0322_
*112 _0323_
*113 _0324_
*114 _0325_
*115 _0326_
*116 _0327_
*117 _0328_
*118 _0329_
*119 _0330_
*120 _0331_
*121 _0332_
*122 _0333_
*123 _0334_
*124 _0335_
*125 _0336_
*126 _0337_
*127 _0338_
*128 _0339_
*129 _0340_
*130 _0341_
*131 _0342_
*132 _0343_
*133 _0344_
*134 _0345_
*135 _0346_
*136 _0347_
*137 _0348_
*138 _0349_
*139 _0350_
*140 _0351_
*141 _0352_
*142 _0353_
*143 _0354_
*144 _0355_
*145 _0356_
*146 _0357_
*147 _0358_
*148 _0359_
*149 _0360_
*150 _0361_
*151 _0362_
*152 _0363_
*153 _0364_
*154 _0365_
*155 _0366_
*156 _0367_
*157 _0368_
*158 _0369_
*159 _0370_
*160 _0371_
*161 _0372_
*162 _0373_
*163 _0374_
*164 _0375_
*165 _0376_
*166 _0377_
*167 _0378_
*168 _0379_
*169 _0380_
*170 _0381_
*171 _0382_
*172 _0383_
*173 _0384_
*174 _0385_
*175 _0386_
*176 _0387_
*177 _0388_
*178 _0389_
*179 _0390_
*180 _0391_
*181 _0392_
*182 _0393_
*183 _0394_
*184 _0395_
*185 _0396_
*186 _0397_
*187 _0398_
*188 _0399_
*189 _0400_
*190 _0401_
*191 _0402_
*192 _0403_
*193 _0404_
*194 _0405_
*195 _0406_
*196 _0407_
*197 _0408_
*198 _0409_
*199 _0410_
*200 _0411_
*201 _0412_
*202 _0413_
*203 _0414_
*204 _0415_
*205 _0416_
*206 _0417_
*207 _0418_
*208 _0419_
*209 _0420_
*210 _0421_
*211 _0422_
*212 _0423_
*213 _0424_
*214 _0425_
*215 _0426_
*216 _0427_
*217 _0428_
*218 _0429_
*219 _0430_
*220 _0431_
*221 _0432_
*222 _0433_
*223 _0434_
*224 _0435_
*225 _0436_
*226 _0437_
*227 _0438_
*228 _0439_
*229 _0440_
*230 _0441_
*231 _0442_
*232 _0443_
*233 _0444_
*234 _0445_
*235 _0446_
*236 _0447_
*237 _0448_
*238 _0449_
*239 _0450_
*240 _0451_
*241 _0452_
*242 _0453_
*243 _0454_
*244 _0455_
*245 _0456_
*246 _0457_
*247 _0458_
*248 _0459_
*249 _0460_
*250 _0461_
*251 _0462_
*252 _0463_
*253 _0464_
*254 _0465_
*255 _0466_
*256 _0467_
*257 _0468_
*258 _0469_
*259 _0470_
*260 _0471_
*261 _0472_
*262 _0473_
*263 _0474_
*264 clknet_0_clk
*265 clknet_2_0__leaf_clk
*266 clknet_2_1__leaf_clk
*267 clknet_2_2__leaf_clk
*268 clknet_2_3__leaf_clk
*269 clknet_leaf_0_clk
*270 clknet_leaf_10_clk
*271 clknet_leaf_11_clk
*272 clknet_leaf_12_clk
*273 clknet_leaf_13_clk
*274 clknet_leaf_14_clk
*275 clknet_leaf_15_clk
*276 clknet_leaf_16_clk
*277 clknet_leaf_17_clk
*278 clknet_leaf_18_clk
*279 clknet_leaf_19_clk
*280 clknet_leaf_1_clk
*281 clknet_leaf_20_clk
*282 clknet_leaf_21_clk
*283 clknet_leaf_22_clk
*284 clknet_leaf_23_clk
*285 clknet_leaf_24_clk
*286 clknet_leaf_25_clk
*287 clknet_leaf_26_clk
*288 clknet_leaf_27_clk
*289 clknet_leaf_29_clk
*290 clknet_leaf_2_clk
*291 clknet_leaf_30_clk
*292 clknet_leaf_31_clk
*293 clknet_leaf_32_clk
*294 clknet_leaf_33_clk
*295 clknet_leaf_34_clk
*296 clknet_leaf_35_clk
*297 clknet_leaf_36_clk
*298 clknet_leaf_37_clk
*299 clknet_leaf_38_clk
*300 clknet_leaf_39_clk
*301 clknet_leaf_3_clk
*302 clknet_leaf_40_clk
*303 clknet_leaf_41_clk
*304 clknet_leaf_42_clk
*305 clknet_leaf_43_clk
*306 clknet_leaf_44_clk
*307 clknet_leaf_45_clk
*308 clknet_leaf_46_clk
*309 clknet_leaf_47_clk
*310 clknet_leaf_48_clk
*311 clknet_leaf_49_clk
*312 clknet_leaf_4_clk
*313 clknet_leaf_50_clk
*314 clknet_leaf_5_clk
*315 clknet_leaf_6_clk
*316 clknet_leaf_7_clk
*317 clknet_leaf_8_clk
*318 clknet_leaf_9_clk
*319 counter10\[0\]
*320 counter10\[10\]
*321 counter10\[11\]
*322 counter10\[12\]
*323 counter10\[13\]
*324 counter10\[14\]
*325 counter10\[15\]
*326 counter10\[16\]
*327 counter10\[17\]
*328 counter10\[18\]
*329 counter10\[19\]
*330 counter10\[1\]
*331 counter10\[20\]
*332 counter10\[21\]
*333 counter10\[22\]
*334 counter10\[23\]
*335 counter10\[24\]
*336 counter10\[25\]
*337 counter10\[26\]
*338 counter10\[27\]
*339 counter10\[2\]
*340 counter10\[3\]
*341 counter10\[4\]
*342 counter10\[5\]
*343 counter10\[6\]
*344 counter10\[7\]
*345 counter10\[8\]
*346 counter10\[9\]
*347 counter2\[0\]
*348 counter2\[10\]
*349 counter2\[11\]
*350 counter2\[12\]
*351 counter2\[13\]
*352 counter2\[14\]
*353 counter2\[15\]
*354 counter2\[16\]
*355 counter2\[17\]
*356 counter2\[18\]
*357 counter2\[19\]
*358 counter2\[1\]
*359 counter2\[20\]
*360 counter2\[21\]
*361 counter2\[22\]
*362 counter2\[23\]
*363 counter2\[24\]
*364 counter2\[25\]
*365 counter2\[26\]
*366 counter2\[27\]
*367 counter2\[2\]
*368 counter2\[3\]
*369 counter2\[4\]
*370 counter2\[5\]
*371 counter2\[6\]
*372 counter2\[7\]
*373 counter2\[8\]
*374 counter2\[9\]
*375 counter3\[0\]
*376 counter3\[10\]
*377 counter3\[11\]
*378 counter3\[12\]
*379 counter3\[13\]
*380 counter3\[14\]
*381 counter3\[15\]
*382 counter3\[16\]
*383 counter3\[17\]
*384 counter3\[18\]
*385 counter3\[19\]
*386 counter3\[1\]
*387 counter3\[20\]
*388 counter3\[21\]
*389 counter3\[22\]
*390 counter3\[23\]
*391 counter3\[24\]
*392 counter3\[25\]
*393 counter3\[26\]
*394 counter3\[27\]
*395 counter3\[2\]
*396 counter3\[3\]
*397 counter3\[4\]
*398 counter3\[5\]
*399 counter3\[6\]
*400 counter3\[7\]
*401 counter3\[8\]
*402 counter3\[9\]
*403 counter4\[0\]
*404 counter4\[10\]
*405 counter4\[11\]
*406 counter4\[12\]
*407 counter4\[13\]
*408 counter4\[14\]
*409 counter4\[15\]
*410 counter4\[16\]
*411 counter4\[17\]
*412 counter4\[18\]
*413 counter4\[19\]
*414 counter4\[1\]
*415 counter4\[20\]
*416 counter4\[21\]
*417 counter4\[22\]
*418 counter4\[23\]
*419 counter4\[24\]
*420 counter4\[25\]
*421 counter4\[26\]
*422 counter4\[27\]
*423 counter4\[2\]
*424 counter4\[3\]
*425 counter4\[4\]
*426 counter4\[5\]
*427 counter4\[6\]
*428 counter4\[7\]
*429 counter4\[8\]
*430 counter4\[9\]
*431 counter5\[0\]
*432 counter5\[10\]
*433 counter5\[11\]
*434 counter5\[12\]
*435 counter5\[13\]
*436 counter5\[14\]
*437 counter5\[15\]
*438 counter5\[16\]
*439 counter5\[17\]
*440 counter5\[18\]
*441 counter5\[19\]
*442 counter5\[1\]
*443 counter5\[20\]
*444 counter5\[21\]
*445 counter5\[22\]
*446 counter5\[23\]
*447 counter5\[24\]
*448 counter5\[25\]
*449 counter5\[26\]
*450 counter5\[27\]
*451 counter5\[2\]
*452 counter5\[3\]
*453 counter5\[4\]
*454 counter5\[5\]
*455 counter5\[6\]
*456 counter5\[7\]
*457 counter5\[8\]
*458 counter5\[9\]
*459 counter6\[0\]
*460 counter6\[10\]
*461 counter6\[11\]
*462 counter6\[12\]
*463 counter6\[13\]
*464 counter6\[14\]
*465 counter6\[15\]
*466 counter6\[16\]
*467 counter6\[17\]
*468 counter6\[18\]
*469 counter6\[19\]
*470 counter6\[1\]
*471 counter6\[20\]
*472 counter6\[21\]
*473 counter6\[22\]
*474 counter6\[23\]
*475 counter6\[24\]
*476 counter6\[25\]
*477 counter6\[26\]
*478 counter6\[27\]
*479 counter6\[2\]
*480 counter6\[3\]
*481 counter6\[4\]
*482 counter6\[5\]
*483 counter6\[6\]
*484 counter6\[7\]
*485 counter6\[8\]
*486 counter6\[9\]
*487 counter7\[0\]
*488 counter7\[10\]
*489 counter7\[11\]
*490 counter7\[12\]
*491 counter7\[13\]
*492 counter7\[14\]
*493 counter7\[15\]
*494 counter7\[16\]
*495 counter7\[17\]
*496 counter7\[18\]
*497 counter7\[19\]
*498 counter7\[1\]
*499 counter7\[20\]
*500 counter7\[21\]
*501 counter7\[22\]
*502 counter7\[23\]
*503 counter7\[24\]
*504 counter7\[25\]
*505 counter7\[26\]
*506 counter7\[27\]
*507 counter7\[2\]
*508 counter7\[3\]
*509 counter7\[4\]
*510 counter7\[5\]
*511 counter7\[6\]
*512 counter7\[7\]
*513 counter7\[8\]
*514 counter7\[9\]
*515 counter8\[0\]
*516 counter8\[10\]
*517 counter8\[11\]
*518 counter8\[12\]
*519 counter8\[13\]
*520 counter8\[14\]
*521 counter8\[15\]
*522 counter8\[16\]
*523 counter8\[17\]
*524 counter8\[18\]
*525 counter8\[19\]
*526 counter8\[1\]
*527 counter8\[20\]
*528 counter8\[21\]
*529 counter8\[22\]
*530 counter8\[23\]
*531 counter8\[24\]
*532 counter8\[25\]
*533 counter8\[26\]
*534 counter8\[27\]
*535 counter8\[2\]
*536 counter8\[3\]
*537 counter8\[4\]
*538 counter8\[5\]
*539 counter8\[6\]
*540 counter8\[7\]
*541 counter8\[8\]
*542 counter8\[9\]
*543 counter9\[0\]
*544 counter9\[10\]
*545 counter9\[11\]
*546 counter9\[12\]
*547 counter9\[13\]
*548 counter9\[14\]
*549 counter9\[15\]
*550 counter9\[16\]
*551 counter9\[17\]
*552 counter9\[18\]
*553 counter9\[19\]
*554 counter9\[1\]
*555 counter9\[20\]
*556 counter9\[21\]
*557 counter9\[22\]
*558 counter9\[23\]
*559 counter9\[24\]
*560 counter9\[25\]
*561 counter9\[26\]
*562 counter9\[27\]
*563 counter9\[2\]
*564 counter9\[3\]
*565 counter9\[4\]
*566 counter9\[5\]
*567 counter9\[6\]
*568 counter9\[7\]
*569 counter9\[8\]
*570 counter9\[9\]
*571 counter\[0\]
*572 counter\[10\]
*573 counter\[11\]
*574 counter\[12\]
*575 counter\[13\]
*576 counter\[14\]
*577 counter\[15\]
*578 counter\[16\]
*579 counter\[17\]
*580 counter\[18\]
*581 counter\[19\]
*582 counter\[1\]
*583 counter\[20\]
*584 counter\[21\]
*585 counter\[22\]
*586 counter\[23\]
*587 counter\[24\]
*588 counter\[25\]
*589 counter\[26\]
*590 counter\[27\]
*591 counter\[2\]
*592 counter\[3\]
*593 counter\[4\]
*594 counter\[5\]
*595 counter\[6\]
*596 counter\[7\]
*597 counter\[8\]
*598 counter\[9\]
*599 net1
*600 net10
*601 net100
*602 net101
*603 net102
*604 net103
*605 net104
*606 net105
*607 net106
*608 net107
*609 net108
*610 net109
*611 net11
*612 net110
*613 net111
*614 net112
*615 net113
*616 net114
*617 net115
*618 net116
*619 net117
*620 net118
*621 net119
*622 net12
*623 net120
*624 net121
*625 net122
*626 net123
*627 net124
*628 net125
*629 net126
*630 net127
*631 net128
*632 net129
*633 net13
*634 net130
*635 net131
*636 net132
*637 net133
*638 net134
*639 net135
*640 net136
*641 net137
*642 net138
*643 net139
*644 net14
*645 net140
*646 net141
*647 net142
*648 net143
*649 net144
*650 net145
*651 net146
*652 net147
*653 net148
*654 net149
*655 net15
*656 net150
*657 net151
*658 net152
*659 net153
*660 net154
*661 net155
*662 net156
*663 net157
*664 net158
*665 net159
*666 net16
*667 net160
*668 net161
*669 net162
*670 net163
*671 net164
*672 net165
*673 net166
*674 net167
*675 net168
*676 net169
*677 net17
*678 net170
*679 net171
*680 net172
*681 net173
*682 net174
*683 net175
*684 net176
*685 net177
*686 net178
*687 net179
*688 net18
*689 net180
*690 net181
*691 net182
*692 net183
*693 net184
*694 net185
*695 net186
*696 net187
*697 net188
*698 net189
*699 net19
*700 net190
*701 net191
*702 net192
*703 net193
*704 net194
*705 net195
*706 net196
*707 net197
*708 net198
*709 net199
*710 net2
*711 net20
*712 net200
*713 net201
*714 net202
*715 net203
*716 net204
*717 net205
*718 net206
*719 net207
*720 net208
*721 net209
*722 net21
*723 net210
*724 net211
*725 net212
*726 net213
*727 net214
*728 net215
*729 net216
*730 net217
*731 net218
*732 net219
*733 net22
*734 net220
*735 net221
*736 net222
*737 net223
*738 net224
*739 net225
*740 net226
*741 net227
*742 net228
*743 net229
*744 net23
*745 net230
*746 net231
*747 net232
*748 net233
*749 net234
*750 net235
*751 net24
*752 net25
*753 net26
*754 net27
*755 net28
*756 net29
*757 net3
*758 net30
*759 net31
*760 net32
*761 net33
*762 net34
*763 net35
*764 net36
*765 net37
*766 net38
*767 net39
*768 net4
*769 net40
*770 net41
*771 net42
*772 net43
*773 net44
*774 net45
*775 net46
*776 net47
*777 net48
*778 net49
*779 net5
*780 net50
*781 net51
*782 net52
*783 net53
*784 net54
*785 net55
*786 net56
*787 net57
*788 net58
*789 net59
*790 net6
*791 net60
*792 net61
*793 net62
*794 net63
*795 net64
*796 net65
*797 net66
*798 net67
*799 net68
*800 net69
*801 net7
*802 net70
*803 net71
*804 net72
*805 net73
*806 net74
*807 net75
*808 net76
*809 net77
*810 net78
*811 net79
*812 net8
*813 net80
*814 net81
*815 net82
*816 net83
*817 net84
*818 net85
*819 net86
*820 net87
*821 net88
*822 net89
*823 net9
*824 net90
*825 net91
*826 net92
*827 net93
*828 net94
*829 net95
*830 net96
*831 net97
*832 net98
*833 net99
*834 ANTENNA__0493__A2
*835 ANTENNA__0503__A4
*836 ANTENNA__0504__A2
*837 ANTENNA__0513__I
*838 ANTENNA__0543__A2
*839 ANTENNA__0561__A3
*840 ANTENNA__0572__I
*841 ANTENNA__0586__A1
*842 ANTENNA__0589__A1
*843 ANTENNA__0595__A2
*844 ANTENNA__0598__A2
*845 ANTENNA__0600__A1
*846 ANTENNA__0607__A1
*847 ANTENNA__0630__A1
*848 ANTENNA__0631__A2
*849 ANTENNA__0633__A1
*850 ANTENNA__0636__A1
*851 ANTENNA__0644__A3
*852 ANTENNA__0648__A1
*853 ANTENNA__0648__A2
*854 ANTENNA__0650__A1
*855 ANTENNA__0650__A2
*856 ANTENNA__0656__I
*857 ANTENNA__0660__A2
*858 ANTENNA__0663__A1
*859 ANTENNA__0665__A2
*860 ANTENNA__0666__A2
*861 ANTENNA__0671__B2
*862 ANTENNA__0676__B
*863 ANTENNA__0697__A2
*864 ANTENNA__0705__I
*865 ANTENNA__0706__A2
*866 ANTENNA__0708__A1
*867 ANTENNA__0711__A2
*868 ANTENNA__0714__A2
*869 ANTENNA__0716__A1
*870 ANTENNA__0719__A2
*871 ANTENNA__0723__B
*872 ANTENNA__0725__CLK
*873 ANTENNA__0726__CLK
*874 ANTENNA__0727__CLK
*875 ANTENNA__0728__CLK
*876 ANTENNA__0731__CLK
*877 ANTENNA__0732__CLK
*878 ANTENNA__0733__CLK
*879 ANTENNA__0734__CLK
*880 ANTENNA__0735__CLK
*881 ANTENNA__0736__CLK
*882 ANTENNA__0737__CLK
*883 ANTENNA__0738__CLK
*884 ANTENNA__0739__CLK
*885 ANTENNA__0740__CLK
*886 ANTENNA__0741__CLK
*887 ANTENNA__0742__CLK
*888 ANTENNA__0743__CLK
*889 ANTENNA__0744__CLK
*890 ANTENNA__0745__CLK
*891 ANTENNA__0746__CLK
*892 ANTENNA__0747__CLK
*893 ANTENNA__0748__CLK
*894 ANTENNA__0749__CLK
*895 ANTENNA__0750__CLK
*896 ANTENNA__0751__CLK
*897 ANTENNA__0752__CLK
*898 ANTENNA__0752__D
*899 ANTENNA__0753__CLK
*900 ANTENNA__0754__CLK
*901 ANTENNA__0756__CLK
*902 ANTENNA__0757__CLK
*903 ANTENNA__0758__CLK
*904 ANTENNA__0759__CLK
*905 ANTENNA__0760__CLK
*906 ANTENNA__0761__CLK
*907 ANTENNA__0762__CLK
*908 ANTENNA__0763__CLK
*909 ANTENNA__0764__CLK
*910 ANTENNA__0765__CLK
*911 ANTENNA__0766__CLK
*912 ANTENNA__0768__CLK
*913 ANTENNA__0769__CLK
*914 ANTENNA__0772__CLK
*915 ANTENNA__0773__CLK
*916 ANTENNA__0774__CLK
*917 ANTENNA__0775__CLK
*918 ANTENNA__0776__CLK
*919 ANTENNA__0777__CLK
*920 ANTENNA__0778__CLK
*921 ANTENNA__0779__CLK
*922 ANTENNA__0780__CLK
*923 ANTENNA__0781__CLK
*924 ANTENNA__0782__CLK
*925 ANTENNA__0783__CLK
*926 ANTENNA__0785__CLK
*927 ANTENNA__0787__CLK
*928 ANTENNA__0788__CLK
*929 ANTENNA__0789__CLK
*930 ANTENNA__0790__CLK
*931 ANTENNA__0791__CLK
*932 ANTENNA__0792__CLK
*933 ANTENNA__0794__CLK
*934 ANTENNA__0795__CLK
*935 ANTENNA__0796__CLK
*936 ANTENNA__0797__CLK
*937 ANTENNA__0798__CLK
*938 ANTENNA__0799__CLK
*939 ANTENNA__0800__CLK
*940 ANTENNA__0801__CLK
*941 ANTENNA__0803__CLK
*942 ANTENNA__0805__CLK
*943 ANTENNA__0806__CLK
*944 ANTENNA__0807__CLK
*945 ANTENNA__0808__CLK
*946 ANTENNA__0809__CLK
*947 ANTENNA__0810__CLK
*948 ANTENNA__0811__CLK
*949 ANTENNA__0812__CLK
*950 ANTENNA__0813__CLK
*951 ANTENNA__0814__CLK
*952 ANTENNA__0815__CLK
*953 ANTENNA__0816__CLK
*954 ANTENNA__0817__CLK
*955 ANTENNA__0818__CLK
*956 ANTENNA__0819__CLK
*957 ANTENNA__0820__CLK
*958 ANTENNA__0821__CLK
*959 ANTENNA__0822__CLK
*960 ANTENNA__0823__CLK
*961 ANTENNA__0824__CLK
*962 ANTENNA__0825__CLK
*963 ANTENNA__0826__CLK
*964 ANTENNA__0827__CLK
*965 ANTENNA__0828__CLK
*966 ANTENNA__0829__CLK
*967 ANTENNA__0830__CLK
*968 ANTENNA__0831__CLK
*969 ANTENNA__0832__CLK
*970 ANTENNA__0833__CLK
*971 ANTENNA__0834__CLK
*972 ANTENNA__0835__CLK
*973 ANTENNA__0836__CLK
*974 ANTENNA__0837__CLK
*975 ANTENNA__0838__CLK
*976 ANTENNA__0839__CLK
*977 ANTENNA__0840__CLK
*978 ANTENNA__0841__CLK
*979 ANTENNA__0842__CLK
*980 ANTENNA__0843__CLK
*981 ANTENNA__0844__CLK
*982 ANTENNA__0845__CLK
*983 ANTENNA__0846__CLK
*984 ANTENNA__0847__CLK
*985 ANTENNA__0848__CLK
*986 ANTENNA__0849__CLK
*987 ANTENNA__0850__CLK
*988 ANTENNA__0851__CLK
*989 ANTENNA__0852__CLK
*990 ANTENNA__0853__CLK
*991 ANTENNA__0855__CLK
*992 ANTENNA__0857__CLK
*993 ANTENNA__0858__CLK
*994 ANTENNA__0859__CLK
*995 ANTENNA__0860__CLK
*996 ANTENNA__0861__CLK
*997 ANTENNA__0865__CLK
*998 ANTENNA__0867__CLK
*999 ANTENNA__0868__CLK
*1000 ANTENNA__0869__CLK
*1001 ANTENNA__0870__CLK
*1002 ANTENNA__0871__CLK
*1003 ANTENNA__0872__CLK
*1004 ANTENNA__0873__CLK
*1005 ANTENNA__0874__CLK
*1006 ANTENNA__0875__CLK
*1007 ANTENNA__0876__CLK
*1008 ANTENNA__0877__CLK
*1009 ANTENNA__0878__CLK
*1010 ANTENNA__0879__CLK
*1011 ANTENNA__0880__CLK
*1012 ANTENNA__0881__CLK
*1013 ANTENNA__0882__CLK
*1014 ANTENNA__0886__CLK
*1015 ANTENNA__0887__CLK
*1016 ANTENNA__0888__CLK
*1017 ANTENNA__0889__CLK
*1018 ANTENNA__0890__CLK
*1019 ANTENNA__0891__CLK
*1020 ANTENNA__0892__CLK
*1021 ANTENNA__0893__CLK
*1022 ANTENNA__0894__CLK
*1023 ANTENNA__0895__CLK
*1024 ANTENNA__0896__CLK
*1025 ANTENNA__0898__CLK
*1026 ANTENNA__0899__CLK
*1027 ANTENNA__0902__CLK
*1028 ANTENNA__0903__CLK
*1029 ANTENNA__0904__CLK
*1030 ANTENNA__0905__CLK
*1031 ANTENNA__0906__CLK
*1032 ANTENNA__0907__CLK
*1033 ANTENNA__0908__CLK
*1034 ANTENNA__0909__CLK
*1035 ANTENNA__0910__CLK
*1036 ANTENNA__0911__CLK
*1037 ANTENNA__0912__CLK
*1038 ANTENNA__0913__CLK
*1039 ANTENNA__0914__CLK
*1040 ANTENNA__0915__CLK
*1041 ANTENNA__0916__CLK
*1042 ANTENNA__0917__CLK
*1043 ANTENNA__0918__CLK
*1044 ANTENNA__0919__CLK
*1045 ANTENNA__0920__CLK
*1046 ANTENNA__0921__CLK
*1047 ANTENNA__0922__CLK
*1048 ANTENNA__0923__CLK
*1049 ANTENNA__0924__CLK
*1050 ANTENNA__0926__CLK
*1051 ANTENNA__0932__CLK
*1052 ANTENNA__0933__CLK
*1053 ANTENNA__0934__CLK
*1054 ANTENNA__0935__CLK
*1055 ANTENNA__0937__CLK
*1056 ANTENNA__0938__CLK
*1057 ANTENNA__0939__CLK
*1058 ANTENNA__0940__CLK
*1059 ANTENNA__0941__CLK
*1060 ANTENNA__0942__CLK
*1061 ANTENNA__0943__CLK
*1062 ANTENNA__0944__CLK
*1063 ANTENNA__0945__CLK
*1064 ANTENNA__0946__CLK
*1065 ANTENNA__0947__CLK
*1066 ANTENNA__0948__CLK
*1067 ANTENNA__0949__CLK
*1068 ANTENNA__0950__CLK
*1069 ANTENNA__0951__CLK
*1070 ANTENNA__0952__CLK
*1071 ANTENNA__0953__CLK
*1072 ANTENNA__0954__CLK
*1073 ANTENNA__0955__CLK
*1074 ANTENNA__0956__CLK
*1075 ANTENNA__0957__CLK
*1076 ANTENNA__0958__CLK
*1077 ANTENNA__0959__CLK
*1078 ANTENNA__0960__CLK
*1079 ANTENNA__0961__CLK
*1080 ANTENNA__0962__CLK
*1081 ANTENNA__0963__CLK
*1082 ANTENNA__0964__CLK
*1083 ANTENNA__0965__CLK
*1084 ANTENNA__0966__CLK
*1085 ANTENNA__0967__CLK
*1086 ANTENNA__0969__CLK
*1087 ANTENNA__0970__CLK
*1088 ANTENNA__0974__CLK
*1089 ANTENNA__0975__CLK
*1090 ANTENNA__0976__CLK
*1091 ANTENNA__0977__CLK
*1092 ANTENNA__0978__CLK
*1093 ANTENNA__0979__CLK
*1094 ANTENNA__0983__CLK
*1095 ANTENNA__0985__CLK
*1096 ANTENNA__0986__CLK
*1097 ANTENNA__0987__CLK
*1098 ANTENNA__0988__CLK
*1099 ANTENNA__0990__CLK
*1100 ANTENNA__0991__CLK
*1101 ANTENNA__0992__CLK
*1102 ANTENNA__0993__CLK
*1103 ANTENNA__0994__CLK
*1104 ANTENNA__0995__CLK
*1105 ANTENNA__0996__CLK
*1106 ANTENNA__0997__CLK
*1107 ANTENNA__0998__CLK
*1108 ANTENNA__1000__CLK
*1109 ANTENNA__1001__CLK
*1110 ANTENNA__1002__CLK
*1111 ANTENNA__1003__CLK
*1112 ANTENNA__1004__CLK
*1113 ANTENNA__1005__CLK
*1114 ANTENNA__1006__CLK
*1115 ANTENNA__1007__CLK
*1116 ANTENNA__1008__CLK
*1117 ANTENNA__1009__CLK
*1118 ANTENNA__1010__CLK
*1119 ANTENNA__1011__CLK
*1120 ANTENNA__1012__CLK
*1121 ANTENNA__1013__CLK
*1122 ANTENNA__1014__CLK
*1123 ANTENNA_clkbuf_0_clk_I
*1124 ANTENNA_clkbuf_2_0__f_clk_I
*1125 ANTENNA_clkbuf_2_1__f_clk_I
*1126 ANTENNA_clkbuf_2_2__f_clk_I
*1127 ANTENNA_clkbuf_2_3__f_clk_I
*1128 ANTENNA_clkbuf_leaf_0_clk_I
*1129 ANTENNA_clkbuf_leaf_10_clk_I
*1130 ANTENNA_clkbuf_leaf_11_clk_I
*1131 ANTENNA_clkbuf_leaf_12_clk_I
*1132 ANTENNA_clkbuf_leaf_13_clk_I
*1133 ANTENNA_clkbuf_leaf_14_clk_I
*1134 ANTENNA_clkbuf_leaf_15_clk_I
*1135 ANTENNA_clkbuf_leaf_16_clk_I
*1136 ANTENNA_clkbuf_leaf_17_clk_I
*1137 ANTENNA_clkbuf_leaf_18_clk_I
*1138 ANTENNA_clkbuf_leaf_19_clk_I
*1139 ANTENNA_clkbuf_leaf_1_clk_I
*1140 ANTENNA_clkbuf_leaf_20_clk_I
*1141 ANTENNA_clkbuf_leaf_21_clk_I
*1142 ANTENNA_clkbuf_leaf_22_clk_I
*1143 ANTENNA_clkbuf_leaf_23_clk_I
*1144 ANTENNA_clkbuf_leaf_24_clk_I
*1145 ANTENNA_clkbuf_leaf_25_clk_I
*1146 ANTENNA_clkbuf_leaf_26_clk_I
*1147 ANTENNA_clkbuf_leaf_27_clk_I
*1148 ANTENNA_clkbuf_leaf_29_clk_I
*1149 ANTENNA_clkbuf_leaf_2_clk_I
*1150 ANTENNA_clkbuf_leaf_30_clk_I
*1151 ANTENNA_clkbuf_leaf_31_clk_I
*1152 ANTENNA_clkbuf_leaf_32_clk_I
*1153 ANTENNA_clkbuf_leaf_33_clk_I
*1154 ANTENNA_clkbuf_leaf_34_clk_I
*1155 ANTENNA_clkbuf_leaf_35_clk_I
*1156 ANTENNA_clkbuf_leaf_36_clk_I
*1157 ANTENNA_clkbuf_leaf_37_clk_I
*1158 ANTENNA_clkbuf_leaf_38_clk_I
*1159 ANTENNA_clkbuf_leaf_39_clk_I
*1160 ANTENNA_clkbuf_leaf_3_clk_I
*1161 ANTENNA_clkbuf_leaf_40_clk_I
*1162 ANTENNA_clkbuf_leaf_41_clk_I
*1163 ANTENNA_clkbuf_leaf_42_clk_I
*1164 ANTENNA_clkbuf_leaf_43_clk_I
*1165 ANTENNA_clkbuf_leaf_44_clk_I
*1166 ANTENNA_clkbuf_leaf_45_clk_I
*1167 ANTENNA_clkbuf_leaf_46_clk_I
*1168 ANTENNA_clkbuf_leaf_47_clk_I
*1169 ANTENNA_clkbuf_leaf_48_clk_I
*1170 ANTENNA_clkbuf_leaf_49_clk_I
*1171 ANTENNA_clkbuf_leaf_4_clk_I
*1172 ANTENNA_clkbuf_leaf_50_clk_I
*1173 ANTENNA_clkbuf_leaf_5_clk_I
*1174 ANTENNA_clkbuf_leaf_6_clk_I
*1175 ANTENNA_clkbuf_leaf_7_clk_I
*1176 ANTENNA_clkbuf_leaf_8_clk_I
*1177 ANTENNA_clkbuf_leaf_9_clk_I
*1178 ANTENNA_output8_I
*1179 FILLER_0_104
*1180 FILLER_0_107
*1181 FILLER_0_139
*1182 FILLER_0_142
*1183 FILLER_0_17
*1184 FILLER_0_174
*1185 FILLER_0_177
*1186 FILLER_0_195
*1187 FILLER_0_2
*1188 FILLER_0_203
*1189 FILLER_0_207
*1190 FILLER_0_209
*1191 FILLER_0_212
*1192 FILLER_0_244
*1193 FILLER_0_247
*1194 FILLER_0_279
*1195 FILLER_0_282
*1196 FILLER_0_314
*1197 FILLER_0_317
*1198 FILLER_0_33
*1199 FILLER_0_349
*1200 FILLER_0_352
*1201 FILLER_0_37
*1202 FILLER_0_384
*1203 FILLER_0_387
*1204 FILLER_0_402
*1205 FILLER_0_418
*1206 FILLER_0_422
*1207 FILLER_0_454
*1208 FILLER_0_457
*1209 FILLER_0_489
*1210 FILLER_0_492
*1211 FILLER_0_508
*1212 FILLER_0_69
*1213 FILLER_0_72
*1214 FILLER_10_105
*1215 FILLER_10_108
*1216 FILLER_10_112
*1217 FILLER_10_115
*1218 FILLER_10_117
*1219 FILLER_10_168
*1220 FILLER_10_172
*1221 FILLER_10_176
*1222 FILLER_10_179
*1223 FILLER_10_189
*1224 FILLER_10_193
*1225 FILLER_10_195
*1226 FILLER_10_2
*1227 FILLER_10_212
*1228 FILLER_10_243
*1229 FILLER_10_247
*1230 FILLER_10_250
*1231 FILLER_10_258
*1232 FILLER_10_309
*1233 FILLER_10_313
*1234 FILLER_10_317
*1235 FILLER_10_321
*1236 FILLER_10_335
*1237 FILLER_10_339
*1238 FILLER_10_34
*1239 FILLER_10_37
*1240 FILLER_10_371
*1241 FILLER_10_387
*1242 FILLER_10_389
*1243 FILLER_10_392
*1244 FILLER_10_404
*1245 FILLER_10_413
*1246 FILLER_10_415
*1247 FILLER_10_445
*1248 FILLER_10_449
*1249 FILLER_10_457
*1250 FILLER_10_463
*1251 FILLER_10_474
*1252 FILLER_10_480
*1253 FILLER_10_496
*1254 FILLER_10_504
*1255 FILLER_10_508
*1256 FILLER_10_67
*1257 FILLER_10_69
*1258 FILLER_10_72
*1259 FILLER_10_74
*1260 FILLER_10_81
*1261 FILLER_10_85
*1262 FILLER_10_93
*1263 FILLER_10_96
*1264 FILLER_11_113
*1265 FILLER_11_131
*1266 FILLER_11_139
*1267 FILLER_11_141
*1268 FILLER_11_144
*1269 FILLER_11_160
*1270 FILLER_11_164
*1271 FILLER_11_18
*1272 FILLER_11_194
*1273 FILLER_11_198
*1274 FILLER_11_2
*1275 FILLER_11_207
*1276 FILLER_11_211
*1277 FILLER_11_215
*1278 FILLER_11_219
*1279 FILLER_11_223
*1280 FILLER_11_231
*1281 FILLER_11_235
*1282 FILLER_11_245
*1283 FILLER_11_276
*1284 FILLER_11_286
*1285 FILLER_11_288
*1286 FILLER_11_293
*1287 FILLER_11_309
*1288 FILLER_11_313
*1289 FILLER_11_315
*1290 FILLER_11_345
*1291 FILLER_11_349
*1292 FILLER_11_353
*1293 FILLER_11_357
*1294 FILLER_11_387
*1295 FILLER_11_391
*1296 FILLER_11_422
*1297 FILLER_11_428
*1298 FILLER_11_433
*1299 FILLER_11_437
*1300 FILLER_11_439
*1301 FILLER_11_469
*1302 FILLER_11_477
*1303 FILLER_11_481
*1304 FILLER_11_499
*1305 FILLER_11_507
*1306 FILLER_11_70
*1307 FILLER_11_73
*1308 FILLER_11_82
*1309 FILLER_12_105
*1310 FILLER_12_108
*1311 FILLER_12_112
*1312 FILLER_12_115
*1313 FILLER_12_123
*1314 FILLER_12_125
*1315 FILLER_12_130
*1316 FILLER_12_134
*1317 FILLER_12_140
*1318 FILLER_12_144
*1319 FILLER_12_152
*1320 FILLER_12_154
*1321 FILLER_12_167
*1322 FILLER_12_175
*1323 FILLER_12_179
*1324 FILLER_12_184
*1325 FILLER_12_2
*1326 FILLER_12_206
*1327 FILLER_12_222
*1328 FILLER_12_225
*1329 FILLER_12_233
*1330 FILLER_12_245
*1331 FILLER_12_247
*1332 FILLER_12_250
*1333 FILLER_12_283
*1334 FILLER_12_314
*1335 FILLER_12_318
*1336 FILLER_12_321
*1337 FILLER_12_329
*1338 FILLER_12_333
*1339 FILLER_12_34
*1340 FILLER_12_364
*1341 FILLER_12_37
*1342 FILLER_12_372
*1343 FILLER_12_376
*1344 FILLER_12_378
*1345 FILLER_12_383
*1346 FILLER_12_387
*1347 FILLER_12_389
*1348 FILLER_12_392
*1349 FILLER_12_422
*1350 FILLER_12_426
*1351 FILLER_12_44
*1352 FILLER_12_458
*1353 FILLER_12_460
*1354 FILLER_12_463
*1355 FILLER_12_473
*1356 FILLER_12_505
*1357 FILLER_12_55
*1358 FILLER_12_59
*1359 FILLER_12_63
*1360 FILLER_12_65
*1361 FILLER_12_74
*1362 FILLER_12_82
*1363 FILLER_12_91
*1364 FILLER_13_10
*1365 FILLER_13_108
*1366 FILLER_13_14
*1367 FILLER_13_141
*1368 FILLER_13_144
*1369 FILLER_13_150
*1370 FILLER_13_16
*1371 FILLER_13_166
*1372 FILLER_13_199
*1373 FILLER_13_2
*1374 FILLER_13_203
*1375 FILLER_13_211
*1376 FILLER_13_215
*1377 FILLER_13_223
*1378 FILLER_13_275
*1379 FILLER_13_283
*1380 FILLER_13_286
*1381 FILLER_13_289
*1382 FILLER_13_297
*1383 FILLER_13_301
*1384 FILLER_13_332
*1385 FILLER_13_336
*1386 FILLER_13_348
*1387 FILLER_13_352
*1388 FILLER_13_354
*1389 FILLER_13_357
*1390 FILLER_13_361
*1391 FILLER_13_413
*1392 FILLER_13_417
*1393 FILLER_13_425
*1394 FILLER_13_428
*1395 FILLER_13_46
*1396 FILLER_13_460
*1397 FILLER_13_471
*1398 FILLER_13_487
*1399 FILLER_13_495
*1400 FILLER_13_499
*1401 FILLER_13_507
*1402 FILLER_13_52
*1403 FILLER_13_56
*1404 FILLER_13_70
*1405 FILLER_13_73
*1406 FILLER_13_92
*1407 FILLER_14_108
*1408 FILLER_14_124
*1409 FILLER_14_132
*1410 FILLER_14_135
*1411 FILLER_14_166
*1412 FILLER_14_170
*1413 FILLER_14_176
*1414 FILLER_14_179
*1415 FILLER_14_2
*1416 FILLER_14_210
*1417 FILLER_14_241
*1418 FILLER_14_245
*1419 FILLER_14_247
*1420 FILLER_14_250
*1421 FILLER_14_254
*1422 FILLER_14_259
*1423 FILLER_14_267
*1424 FILLER_14_271
*1425 FILLER_14_301
*1426 FILLER_14_305
*1427 FILLER_14_309
*1428 FILLER_14_315
*1429 FILLER_14_321
*1430 FILLER_14_325
*1431 FILLER_14_34
*1432 FILLER_14_37
*1433 FILLER_14_377
*1434 FILLER_14_381
*1435 FILLER_14_389
*1436 FILLER_14_392
*1437 FILLER_14_396
*1438 FILLER_14_398
*1439 FILLER_14_403
*1440 FILLER_14_407
*1441 FILLER_14_409
*1442 FILLER_14_439
*1443 FILLER_14_443
*1444 FILLER_14_459
*1445 FILLER_14_463
*1446 FILLER_14_493
*1447 FILLER_14_497
*1448 FILLER_14_505
*1449 FILLER_14_53
*1450 FILLER_14_86
*1451 FILLER_14_90
*1452 FILLER_15_133
*1453 FILLER_15_137
*1454 FILLER_15_141
*1455 FILLER_15_144
*1456 FILLER_15_152
*1457 FILLER_15_158
*1458 FILLER_15_2
*1459 FILLER_15_210
*1460 FILLER_15_212
*1461 FILLER_15_215
*1462 FILLER_15_219
*1463 FILLER_15_249
*1464 FILLER_15_281
*1465 FILLER_15_283
*1466 FILLER_15_286
*1467 FILLER_15_302
*1468 FILLER_15_333
*1469 FILLER_15_337
*1470 FILLER_15_353
*1471 FILLER_15_357
*1472 FILLER_15_361
*1473 FILLER_15_367
*1474 FILLER_15_383
*1475 FILLER_15_391
*1476 FILLER_15_393
*1477 FILLER_15_404
*1478 FILLER_15_412
*1479 FILLER_15_416
*1480 FILLER_15_418
*1481 FILLER_15_423
*1482 FILLER_15_425
*1483 FILLER_15_428
*1484 FILLER_15_458
*1485 FILLER_15_462
*1486 FILLER_15_466
*1487 FILLER_15_468
*1488 FILLER_15_473
*1489 FILLER_15_489
*1490 FILLER_15_499
*1491 FILLER_15_507
*1492 FILLER_15_66
*1493 FILLER_15_70
*1494 FILLER_15_73
*1495 FILLER_15_75
*1496 FILLER_15_80
*1497 FILLER_15_96
*1498 FILLER_16_100
*1499 FILLER_16_104
*1500 FILLER_16_108
*1501 FILLER_16_119
*1502 FILLER_16_127
*1503 FILLER_16_131
*1504 FILLER_16_133
*1505 FILLER_16_163
*1506 FILLER_16_167
*1507 FILLER_16_175
*1508 FILLER_16_179
*1509 FILLER_16_18
*1510 FILLER_16_195
*1511 FILLER_16_2
*1512 FILLER_16_203
*1513 FILLER_16_219
*1514 FILLER_16_227
*1515 FILLER_16_233
*1516 FILLER_16_241
*1517 FILLER_16_245
*1518 FILLER_16_247
*1519 FILLER_16_250
*1520 FILLER_16_254
*1521 FILLER_16_26
*1522 FILLER_16_284
*1523 FILLER_16_290
*1524 FILLER_16_294
*1525 FILLER_16_31
*1526 FILLER_16_310
*1527 FILLER_16_316
*1528 FILLER_16_318
*1529 FILLER_16_321
*1530 FILLER_16_331
*1531 FILLER_16_362
*1532 FILLER_16_366
*1533 FILLER_16_37
*1534 FILLER_16_374
*1535 FILLER_16_378
*1536 FILLER_16_383
*1537 FILLER_16_389
*1538 FILLER_16_392
*1539 FILLER_16_40
*1540 FILLER_16_422
*1541 FILLER_16_424
*1542 FILLER_16_429
*1543 FILLER_16_460
*1544 FILLER_16_463
*1545 FILLER_16_468
*1546 FILLER_16_500
*1547 FILLER_16_508
*1548 FILLER_16_56
*1549 FILLER_16_93
*1550 FILLER_16_95
*1551 FILLER_17_117
*1552 FILLER_17_123
*1553 FILLER_17_139
*1554 FILLER_17_141
*1555 FILLER_17_144
*1556 FILLER_17_149
*1557 FILLER_17_157
*1558 FILLER_17_188
*1559 FILLER_17_192
*1560 FILLER_17_194
*1561 FILLER_17_2
*1562 FILLER_17_203
*1563 FILLER_17_211
*1564 FILLER_17_215
*1565 FILLER_17_217
*1566 FILLER_17_220
*1567 FILLER_17_228
*1568 FILLER_17_232
*1569 FILLER_17_236
*1570 FILLER_17_267
*1571 FILLER_17_273
*1572 FILLER_17_281
*1573 FILLER_17_283
*1574 FILLER_17_286
*1575 FILLER_17_305
*1576 FILLER_17_313
*1577 FILLER_17_315
*1578 FILLER_17_318
*1579 FILLER_17_336
*1580 FILLER_17_340
*1581 FILLER_17_345
*1582 FILLER_17_35
*1583 FILLER_17_353
*1584 FILLER_17_357
*1585 FILLER_17_365
*1586 FILLER_17_367
*1587 FILLER_17_397
*1588 FILLER_17_401
*1589 FILLER_17_417
*1590 FILLER_17_421
*1591 FILLER_17_425
*1592 FILLER_17_428
*1593 FILLER_17_479
*1594 FILLER_17_495